<?xml version="1.0" encoding="ISO-8859-1"?>
<febio_spec version="2.5">
	<Module type="solid"/>
	<Control>
		<time_steps>10</time_steps>
		<step_size>0.1</step_size>
		<max_refs>15</max_refs>
		<max_ups>10</max_ups>
		<diverge_reform>1</diverge_reform>
		<reform_each_time_step>1</reform_each_time_step>
		<dtol>0.001</dtol>
		<etol>0.01</etol>
		<rtol>0</rtol>
		<lstol>0.9</lstol>
		<min_residual>1e-20</min_residual>
		<qnmethod>0</qnmethod>
		<time_stepper>
			<dtmin>0.01</dtmin>
			<dtmax>0.1</dtmax>
			<max_retries>5</max_retries>
			<opt_iter>10</opt_iter>
		</time_stepper>
		<analysis type="static"/>
	</Control>
	<Globals>
		<Constants>
			<T>0</T>
			<R>0</R>
			<Fc>0</Fc>
		</Constants>
	</Globals>
	<Material>
		<material id="1" name="Material2" type="isotropic elastic">
			<density>1070</density>
			<E>66000</E>
			<v>0.49</v>
		</material>
	</Material>
	<Geometry>
		<Nodes name="box">
			<node id="1">  0.0000000e+00,  0.0000000e+00,  0.0000000e+00</node>
			<node id="2">  0.0000000e+00,  0.0000000e+00,  5.0000000e-02</node>
			<node id="3">  0.0000000e+00,  0.0000000e+00,  1.0000000e-01</node>
			<node id="4">  0.0000000e+00,  0.0000000e+00,  1.5000000e-01</node>
			<node id="5">  0.0000000e+00,  0.0000000e+00,  2.0000000e-01</node>
			<node id="6">  0.0000000e+00,  5.0000000e-02,  0.0000000e+00</node>
			<node id="7">  0.0000000e+00,  5.0000000e-02,  5.0000000e-02</node>
			<node id="8">  0.0000000e+00,  5.0000000e-02,  1.0000000e-01</node>
			<node id="9">  0.0000000e+00,  5.0000000e-02,  1.5000000e-01</node>
			<node id="10">  0.0000000e+00,  5.0000000e-02,  2.0000000e-01</node>
			<node id="11">  0.0000000e+00,  1.0000000e-01,  0.0000000e+00</node>
			<node id="12">  0.0000000e+00,  1.0000000e-01,  5.0000000e-02</node>
			<node id="13">  0.0000000e+00,  1.0000000e-01,  1.0000000e-01</node>
			<node id="14">  0.0000000e+00,  1.0000000e-01,  1.5000000e-01</node>
			<node id="15">  0.0000000e+00,  1.0000000e-01,  2.0000000e-01</node>
			<node id="16">  0.0000000e+00,  1.5000000e-01,  0.0000000e+00</node>
			<node id="17">  0.0000000e+00,  1.5000000e-01,  5.0000000e-02</node>
			<node id="18">  0.0000000e+00,  1.5000000e-01,  1.0000000e-01</node>
			<node id="19">  0.0000000e+00,  1.5000000e-01,  1.5000000e-01</node>
			<node id="20">  0.0000000e+00,  1.5000000e-01,  2.0000000e-01</node>
<!-- ... 1504 like lines cut -->
		</Nodes>
		<Elements type="tet20" mat="1" name="Part1">
			<elem id="1">    70,    94,    89,    69,   815,   816,   926,   925,   809,   810,   802,   801,   806,   805,   804,   803,   957,   958,  1318,   962</elem>
			<elem id="2">    29,    48,    46,    45,   423,   424,   550,   549,   421,   422,   419,   420,   542,   541,   540,   539,  1161,  1419,   959,  1120</elem>
			<elem id="3">    94,    70,    89,    95,   816,   815,   809,   810,   926,   925,   949,   950,   817,   818,   927,   928,   960,  1324,   961,   962</elem>
			<elem id="4">    44,    50,    87,    86,   523,   524,   601,   602,   537,   538,   535,   536,   599,   600,   910,   909,  1346,   968,  1367,  1280</elem>
			<elem id="5">     6,     2,    27,     7,   110,   109,   115,   116,   151,   152,   143,   144,   111,   112,   162,   161,   963,  1112,   981,   992</elem>
			<elem id="6">    83,    87,    82,    64,   893,   894,   892,   891,   890,   889,   750,   749,   752,   751,   748,   747,   973,  1291,  1199,   964</elem>
			<elem id="7">     8,    12,    49,     7,   177,   178,   241,   242,   193,   194,   158,   157,   160,   159,   174,   173,   965,  1104,   995,  1410</elem>
			<elem id="8">    38,    18,    55,    39,   328,   327,   335,   336,   481,   482,   473,   474,   329,   330,   486,   485,  1278,  1255,   966,  1293</elem>
			<elem id="9">    56,    14,    13,    52,   286,   285,   246,   245,   264,   263,   626,   625,   283,   284,   259,   260,  1212,  1222,  1213,  1088</elem>
			<elem id="10">    91,    87,    50,    86,   916,   915,   602,   601,   604,   603,   912,   911,   910,   909,   599,   600,   967,   968,  1307,  1331</elem>
			<elem id="11">    38,    53,    51,    37,   477,   478,   608,   607,   475,   476,   468,   467,   472,   471,   470,   469,   969,   970,  1238,   994</elem>
			<elem id="12">    92,    93,    66,    87,   941,   942,   780,   779,   778,   777,   918,   917,   920,   919,   773,   774,   971,  1185,  1048,  1194</elem>
			<elem id="13">    83,    66,    87,    64,   772,   771,   773,   774,   893,   894,   750,   749,   746,   745,   752,   751,   972,  1289,   973,   985</elem>
			<elem id="14">    26,     6,     1,    27,   150,   149,   102,   101,   104,   103,   389,   390,   151,   152,   105,   106,  1094,   990,   974,   975</elem>
			<elem id="15">    47,    33,     7,    49,   442,   441,   166,   165,   172,   171,   555,   556,   443,   444,   173,   174,   976,  1103,  1484,  1387</elem>
			<elem id="16">    58,    47,    59,    63,   558,   557,   559,   560,   669,   670,   671,   672,   561,   562,   679,   680,   977,  1136,  1328,  1150</elem>
			<elem id="17">    27,    42,    26,    47,   401,   402,   394,   393,   390,   389,   407,   408,   503,   504,   395,   396,  1038,   978,   983,   979</elem>
			<elem id="18">    23,    39,    40,    18,   377,   378,   483,   484,   379,   380,   324,   323,   330,   329,   332,   331,  1277,  1254,  1059,   980</elem>
			<elem id="19">    56,    50,    13,    55,   592,   591,   256,   255,   264,   263,   650,   649,   589,   590,   261,   262,  1299,  1260,  1051,  1214</elem>
			<elem id="20">    27,     6,     7,    31,   152,   151,   143,   144,   162,   161,   399,   400,   153,   154,   163,   164,  1092,  1009,  1439,   981</elem>
<!-- ... 216 like lines cut -->
		</Elements>
		<NodeSet name="FixedDisplacement1">
			<node id="1"/>
			<node id="2"/>
			<node id="3"/>
			<node id="4"/>
			<node id="5"/>
			<node id="6"/>
			<node id="7"/>
			<node id="8"/>
			<node id="9"/>
			<node id="10"/>
			<node id="11"/>
			<node id="12"/>
			<node id="13"/>
			<node id="14"/>
			<node id="15"/>
			<node id="16"/>
			<node id="17"/>
			<node id="18"/>
			<node id="19"/>
			<node id="20"/>
<!-- ... 149 like lines cut -->
		</NodeSet>
		<NodeSet name="FixedDisplacement2">
			<node id="74"/>
			<node id="75"/>
			<node id="76"/>
			<node id="77"/>
			<node id="78"/>
			<node id="79"/>
			<node id="80"/>
			<node id="81"/>
			<node id="82"/>
			<node id="83"/>
			<node id="84"/>
			<node id="85"/>
			<node id="86"/>
			<node id="87"/>
			<node id="88"/>
			<node id="89"/>
			<node id="90"/>
			<node id="91"/>
			<node id="92"/>
			<node id="93"/>
<!-- ... 149 like lines cut -->
		</NodeSet>
		<NodeSet name="PrescribedDisplacement1">
			<node id="74"/>
			<node id="75"/>
			<node id="76"/>
			<node id="77"/>
			<node id="78"/>
			<node id="79"/>
			<node id="80"/>
			<node id="81"/>
			<node id="82"/>
			<node id="83"/>
			<node id="84"/>
			<node id="85"/>
			<node id="86"/>
			<node id="87"/>
			<node id="88"/>
			<node id="89"/>
			<node id="90"/>
			<node id="91"/>
			<node id="92"/>
			<node id="93"/>
<!-- ... 149 like lines cut -->
		</NodeSet>
	</Geometry>
	<Boundary>
		<fix bc="x,y,z" node_set="FixedDisplacement1"/>
		<fix bc="y,z" node_set="FixedDisplacement2"/>
		<prescribe bc="x" node_set="PrescribedDisplacement1">
			<scale lc="1">-0.05</scale>
			<relative>0</relative>
		</prescribe>
	</Boundary>
	<LoadData>
		<loadcurve id="1" type="smooth">
			<point>0,0</point>
			<point>1,1</point>
		</loadcurve>
	</LoadData>
	<Output>
		<plotfile type="febio">
			<var type="displacement"/>
			<var type="stress"/>
		</plotfile>
	</Output>
</febio_spec>
