<?xml version="1.0" encoding="ISO-8859-1"?>
<febio_spec version="2.5">
	<Module type="solid"/>
	<Control>
		<time_steps>10</time_steps>
		<step_size>0.1</step_size>
		<max_refs>15</max_refs>
		<max_ups>10</max_ups>
		<diverge_reform>1</diverge_reform>
		<reform_each_time_step>1</reform_each_time_step>
		<dtol>0.001</dtol>
		<etol>0.01</etol>
		<rtol>0</rtol>
		<lstol>0.9</lstol>
		<min_residual>1e-20</min_residual>
		<qnmethod>0</qnmethod>
		<time_stepper>
			<dtmin>0.01</dtmin>
			<dtmax>0.1</dtmax>
			<max_retries>5</max_retries>
			<opt_iter>10</opt_iter>
		</time_stepper>
		<analysis type="static"/>
	</Control>
	<Globals>
		<Constants>
			<T>0</T>
			<R>0</R>
			<Fc>0</Fc>
		</Constants>
	</Globals>
	<Material>
		<material id="1" name="Material2" type="isotropic elastic">
			<density>1070</density>
			<E>66000</E>
			<v>0.49</v>
		</material>
	</Material>
	<Geometry>
		<Nodes name="box">
			<node id="1">  0.0000000e+00,  0.0000000e+00,  0.0000000e+00</node>
			<node id="2">  0.0000000e+00,  0.0000000e+00,  5.0000000e-02</node>
			<node id="3">  0.0000000e+00,  0.0000000e+00,  1.0000000e-01</node>
			<node id="4">  0.0000000e+00,  0.0000000e+00,  1.5000000e-01</node>
			<node id="5">  0.0000000e+00,  0.0000000e+00,  2.0000000e-01</node>
			<node id="6">  0.0000000e+00,  5.0000000e-02,  0.0000000e+00</node>
			<node id="7">  0.0000000e+00,  5.0000000e-02,  5.0000000e-02</node>
			<node id="8">  0.0000000e+00,  5.0000000e-02,  1.0000000e-01</node>
			<node id="9">  0.0000000e+00,  5.0000000e-02,  1.5000000e-01</node>
			<node id="10">  0.0000000e+00,  5.0000000e-02,  2.0000000e-01</node>
			<node id="11">  0.0000000e+00,  1.0000000e-01,  0.0000000e+00</node>
			<node id="12">  0.0000000e+00,  1.0000000e-01,  5.0000000e-02</node>
			<node id="13">  0.0000000e+00,  1.0000000e-01,  1.0000000e-01</node>
			<node id="14">  0.0000000e+00,  1.0000000e-01,  1.5000000e-01</node>
			<node id="15">  0.0000000e+00,  1.0000000e-01,  2.0000000e-01</node>
			<node id="16">  0.0000000e+00,  1.5000000e-01,  0.0000000e+00</node>
			<node id="17">  0.0000000e+00,  1.5000000e-01,  5.0000000e-02</node>
			<node id="18">  0.0000000e+00,  1.5000000e-01,  1.0000000e-01</node>
			<node id="19">  0.0000000e+00,  1.5000000e-01,  1.5000000e-01</node>
			<node id="20">  0.0000000e+00,  1.5000000e-01,  2.0000000e-01</node>
<!-- ... 1311 like lines cut -->
		</Nodes>
		<Elements type="tet15" mat="1" name="Part1">
			<elem id="1">    70,    94,    89,    69,   457,   512,   454,   450,   452,   451,   533,   528,   529,   889,  1096</elem>
			<elem id="2">    29,    48,    46,    45,   261,   324,   260,   259,   320,   319,   691,   732,   990,   530,  1097</elem>
			<elem id="3">    94,    70,    89,    95,   457,   454,   512,   524,   458,   513,   533,   531,   895,   532,  1098</elem>
			<elem id="4">    44,    50,    87,    86,   311,   350,   318,   317,   349,   504,   851,   917,   539,   938,  1099</elem>
			<elem id="5">     6,     2,    27,     7,   104,   107,   125,   121,   105,   130,   563,   534,   683,   552,  1100</elem>
			<elem id="6">    83,    87,    82,    64,   496,   495,   494,   424,   425,   423,   535,   544,   862,   770,  1101</elem>
			<elem id="7">     8,    12,    49,     7,   138,   170,   146,   128,   129,   136,   981,   536,   675,   566,  1102</elem>
			<elem id="8">    38,    18,    55,    39,   213,   217,   290,   286,   214,   292,   864,   849,   826,   537,  1103</elem>
			<elem id="9">    56,    14,    13,    52,   192,   172,   181,   362,   191,   179,   659,   783,   793,   784,  1104</elem>
			<elem id="10">    91,    87,    50,    86,   507,   350,   351,   505,   504,   349,   902,   538,   539,   878,  1105</elem>
			<elem id="11">    38,    53,    51,    37,   288,   353,   287,   283,   285,   284,   565,   540,   541,   809,  1106</elem>
			<elem id="12">    92,    93,    66,    87,   520,   439,   438,   508,   509,   436,   765,   542,   756,   619,  1107</elem>
			<elem id="13">    83,    66,    87,    64,   435,   436,   496,   424,   422,   425,   556,   543,   860,   544,  1108</elem>
			<elem id="14">    26,     6,     1,    27,   124,   100,   101,   244,   125,   102,   546,   665,   561,   545,  1109</elem>
			<elem id="15">    47,    33,     7,    49,   270,   132,   135,   327,   271,   136,   958,   547,   674,  1055,  1110</elem>
			<elem id="16">    58,    47,    59,    63,   328,   329,   384,   385,   330,   389,   721,   548,   707,   899,  1111</elem>
			<elem id="17">    27,    42,    26,    47,   250,   246,   244,   253,   301,   247,   550,   609,   549,   554,  1112</elem>
			<elem id="18">    23,    39,    40,    18,   238,   291,   239,   211,   214,   215,   551,   848,   825,   630,  1113</elem>
			<elem id="19">    56,    50,    13,    55,   345,   177,   181,   374,   344,   180,   785,   870,   831,   622,  1114</elem>
			<elem id="20">    27,     6,     7,    31,   125,   121,   130,   249,   126,   131,   552,   663,   580,  1010,  1115</elem>
<!-- ... 216 like lines cut -->
		</Elements>
		<NodeSet name="FixedDisplacement1">
			<node id="1"/>
			<node id="2"/>
			<node id="3"/>
			<node id="4"/>
			<node id="5"/>
			<node id="6"/>
			<node id="7"/>
			<node id="8"/>
			<node id="9"/>
			<node id="10"/>
			<node id="11"/>
			<node id="12"/>
			<node id="13"/>
			<node id="14"/>
			<node id="15"/>
			<node id="16"/>
			<node id="17"/>
			<node id="18"/>
			<node id="19"/>
			<node id="20"/>
<!-- ... 93 like lines cut -->
		</NodeSet>
		<NodeSet name="FixedDisplacement2">
			<node id="74"/>
			<node id="75"/>
			<node id="76"/>
			<node id="77"/>
			<node id="78"/>
			<node id="79"/>
			<node id="80"/>
			<node id="81"/>
			<node id="82"/>
			<node id="83"/>
			<node id="84"/>
			<node id="85"/>
			<node id="86"/>
			<node id="87"/>
			<node id="88"/>
			<node id="89"/>
			<node id="90"/>
			<node id="91"/>
			<node id="92"/>
			<node id="93"/>
<!-- ... 93 like lines cut -->
		</NodeSet>
		<NodeSet name="PrescribedDisplacement1">
			<node id="74"/>
			<node id="75"/>
			<node id="76"/>
			<node id="77"/>
			<node id="78"/>
			<node id="79"/>
			<node id="80"/>
			<node id="81"/>
			<node id="82"/>
			<node id="83"/>
			<node id="84"/>
			<node id="85"/>
			<node id="86"/>
			<node id="87"/>
			<node id="88"/>
			<node id="89"/>
			<node id="90"/>
			<node id="91"/>
			<node id="92"/>
			<node id="93"/>
<!-- ... 93 like lines cut -->
		</NodeSet>
	</Geometry>
	<Boundary>
		<fix bc="x,y,z" node_set="FixedDisplacement1"/>
		<fix bc="y,z" node_set="FixedDisplacement2"/>
		<prescribe bc="x" node_set="PrescribedDisplacement1">
			<scale lc="1">-0.05</scale>
			<relative>0</relative>
		</prescribe>
	</Boundary>
	<LoadData>
		<loadcurve id="1" type="smooth">
			<point>0,0</point>
			<point>1,1</point>
		</loadcurve>
	</LoadData>
	<Output>
		<plotfile type="febio">
			<var type="displacement"/>
			<var type="stress"/>
		</plotfile>
	</Output>
</febio_spec>
