<?xml version="1.0" encoding="ISO-8859-1"?>
<febio_spec version="2.5">
	<Module type="solid"/>
	<Control>
		<time_steps>10</time_steps>
		<step_size>0.1</step_size>
		<max_refs>15</max_refs>
		<max_ups>10</max_ups>
		<diverge_reform>1</diverge_reform>
		<reform_each_time_step>1</reform_each_time_step>
		<dtol>0.001</dtol>
		<etol>0.01</etol>
		<rtol>0</rtol>
		<lstol>0.9</lstol>
		<min_residual>1e-20</min_residual>
		<qnmethod>0</qnmethod>
		<time_stepper>
			<dtmin>0.01</dtmin>
			<dtmax>0.1</dtmax>
			<max_retries>5</max_retries>
			<opt_iter>10</opt_iter>
		</time_stepper>
		<analysis type="static"/>
	</Control>
	<Globals>
		<Constants>
			<T>0</T>
			<R>0</R>
			<Fc>0</Fc>
		</Constants>
	</Globals>
	<Material>
		<material id="1" name="Material1" type="linear orthotropic">
			<density>1070</density>
			<E1>66000</E1>
			<E2>66000</E2>
			<E3>66000</E3>
			<G12>22147.7</G12>
			<G23>22147.7</G23>
			<G31>22147.7</G31>
			<v12>0.49</v12>
			<v23>0.49</v23>
			<v31>0.49</v31>
		</material>
		<material id="2" name="Material2" type="isotropic elastic">
			<density>1070</density>
			<E>66000</E>
			<v>0.49</v>
		</material>
	</Material>
	<Geometry>
		<Nodes name="box">
			<node id="1">  0.0000000e+00,  0.0000000e+00,  0.0000000e+00</node>
			<node id="2">  0.0000000e+00,  0.0000000e+00,  5.0000000e-02</node>
			<node id="3">  0.0000000e+00,  0.0000000e+00,  1.0000000e-01</node>
			<node id="4">  0.0000000e+00,  0.0000000e+00,  1.5000000e-01</node>
			<node id="5">  0.0000000e+00,  0.0000000e+00,  2.0000000e-01</node>
			<node id="6">  0.0000000e+00,  5.0000000e-02,  0.0000000e+00</node>
			<node id="7">  0.0000000e+00,  5.0000000e-02,  5.0000000e-02</node>
			<node id="8">  0.0000000e+00,  5.0000000e-02,  1.0000000e-01</node>
			<node id="9">  0.0000000e+00,  5.0000000e-02,  1.5000000e-01</node>
			<node id="10">  0.0000000e+00,  5.0000000e-02,  2.0000000e-01</node>
			<node id="11">  0.0000000e+00,  1.0000000e-01,  0.0000000e+00</node>
			<node id="12">  0.0000000e+00,  1.0000000e-01,  5.0000000e-02</node>
			<node id="13">  0.0000000e+00,  1.0000000e-01,  1.0000000e-01</node>
			<node id="14">  0.0000000e+00,  1.0000000e-01,  1.5000000e-01</node>
			<node id="15">  0.0000000e+00,  1.0000000e-01,  2.0000000e-01</node>
			<node id="16">  0.0000000e+00,  1.5000000e-01,  0.0000000e+00</node>
			<node id="17">  0.0000000e+00,  1.5000000e-01,  5.0000000e-02</node>
			<node id="18">  0.0000000e+00,  1.5000000e-01,  1.0000000e-01</node>
			<node id="19">  0.0000000e+00,  1.5000000e-01,  1.5000000e-01</node>
			<node id="20">  0.0000000e+00,  1.5000000e-01,  2.0000000e-01</node>
<!-- ... 105 like lines cut -->
		</Nodes>
		<Elements type="tet4" mat="2" name="Part1">
			<elem id="1">     6,     7,    27,    32</elem>
			<elem id="2">     6,     7,     2,    27</elem>
			<elem id="3">     1,     6,     2,    27</elem>
			<elem id="4">     1,     6,    27,    26</elem>
			<elem id="5">    26,     6,    27,    31</elem>
			<elem id="6">    31,     6,    27,    32</elem>
			<elem id="7">    27,    26,    56,    51</elem>
			<elem id="8">    27,    26,    31,    56</elem>
			<elem id="9">    32,    27,    31,    56</elem>
			<elem id="10">    27,    32,    57,    56</elem>
			<elem id="11">    27,    57,    52,    56</elem>
			<elem id="12">    27,    52,    51,    56</elem>
			<elem id="13">    56,    57,    77,    82</elem>
			<elem id="14">    56,    57,    52,    77</elem>
			<elem id="15">    51,    56,    52,    77</elem>
			<elem id="16">    51,    56,    77,    76</elem>
			<elem id="17">    76,    56,    77,    81</elem>
			<elem id="18">    81,    56,    77,    82</elem>
			<elem id="19">    77,    76,   106,   101</elem>
			<elem id="20">    77,    76,    81,   106</elem>
<!-- ... 364 like lines cut -->
		</Elements>
		<NodeSet name="FixedDisplacement1">
			<node id="1"/>
			<node id="2"/>
			<node id="3"/>
			<node id="4"/>
			<node id="5"/>
			<node id="6"/>
			<node id="7"/>
			<node id="8"/>
			<node id="9"/>
			<node id="10"/>
			<node id="11"/>
			<node id="12"/>
			<node id="13"/>
			<node id="14"/>
			<node id="15"/>
			<node id="16"/>
			<node id="17"/>
			<node id="18"/>
			<node id="19"/>
			<node id="20"/>
<!-- ... 5 like lines cut -->
		</NodeSet>
		<NodeSet name="FixedDisplacement2">
			<node id="101"/>
			<node id="102"/>
			<node id="103"/>
			<node id="104"/>
			<node id="105"/>
			<node id="106"/>
			<node id="107"/>
			<node id="108"/>
			<node id="109"/>
			<node id="110"/>
			<node id="111"/>
			<node id="112"/>
			<node id="113"/>
			<node id="114"/>
			<node id="115"/>
			<node id="116"/>
			<node id="117"/>
			<node id="118"/>
			<node id="119"/>
			<node id="120"/>
<!-- ... 5 like lines cut -->
		</NodeSet>
		<NodeSet name="PrescribedDisplacement1">
			<node id="101"/>
			<node id="102"/>
			<node id="103"/>
			<node id="104"/>
			<node id="105"/>
			<node id="106"/>
			<node id="107"/>
			<node id="108"/>
			<node id="109"/>
			<node id="110"/>
			<node id="111"/>
			<node id="112"/>
			<node id="113"/>
			<node id="114"/>
			<node id="115"/>
			<node id="116"/>
			<node id="117"/>
			<node id="118"/>
			<node id="119"/>
			<node id="120"/>
<!-- ... 5 like lines cut -->
		</NodeSet>
	</Geometry>
	<Boundary>
		<fix bc="x,y,z" node_set="FixedDisplacement1"/>
		<fix bc="y,z" node_set="FixedDisplacement2"/>
		<prescribe bc="x" node_set="PrescribedDisplacement1">
			<scale lc="1">-0.05</scale>
			<relative>0</relative>
		</prescribe>
	</Boundary>
	<LoadData>
		<loadcurve id="1" type="smooth">
			<point>0,0</point>
			<point>1,1</point>
		</loadcurve>
	</LoadData>
	<Output>
		<plotfile type="febio">
			<var type="displacement"/>
			<var type="stress"/>
		</plotfile>
	</Output>
</febio_spec>
