<?xml version="1.0" encoding="ISO-8859-1"?>
<febio_spec version="2.5">
	<Module type="solid"/>
	<Control>
		<time_steps>10</time_steps>
		<step_size>0.1</step_size>
		<max_refs>15</max_refs>
		<max_ups>10</max_ups>
		<diverge_reform>1</diverge_reform>
		<reform_each_time_step>1</reform_each_time_step>
		<dtol>0.001</dtol>
		<etol>0.01</etol>
		<rtol>0</rtol>
		<lstol>0.9</lstol>
		<min_residual>1e-20</min_residual>
		<qnmethod>0</qnmethod>
		<time_stepper>
			<dtmin>0.01</dtmin>
			<dtmax>0.1</dtmax>
			<max_retries>5</max_retries>
			<opt_iter>10</opt_iter>
		</time_stepper>
		<analysis type="static"/>
	</Control>
	<Globals>
		<Constants>
			<T>0</T>
			<R>0</R>
			<Fc>0</Fc>
		</Constants>
	</Globals>
	<Material>
		<material id="1" name="Material2" type="isotropic elastic">
			<density>1070</density>
			<E>66000</E>
			<v>0.49</v>
		</material>
	</Material>
	<Geometry>
		<Nodes name="box">
			<node id="1">  0.0000000e+00,  0.0000000e+00,  0.0000000e+00</node>
			<node id="2">  0.0000000e+00,  0.0000000e+00,  5.0000000e-02</node>
			<node id="3">  0.0000000e+00,  0.0000000e+00,  1.0000000e-01</node>
			<node id="4">  0.0000000e+00,  0.0000000e+00,  1.5000000e-01</node>
			<node id="5">  0.0000000e+00,  0.0000000e+00,  2.0000000e-01</node>
			<node id="6">  0.0000000e+00,  5.0000000e-02,  0.0000000e+00</node>
			<node id="7">  0.0000000e+00,  5.0000000e-02,  5.0000000e-02</node>
			<node id="8">  0.0000000e+00,  5.0000000e-02,  1.0000000e-01</node>
			<node id="9">  0.0000000e+00,  5.0000000e-02,  1.5000000e-01</node>
			<node id="10">  0.0000000e+00,  5.0000000e-02,  2.0000000e-01</node>
			<node id="11">  0.0000000e+00,  1.0000000e-01,  0.0000000e+00</node>
			<node id="12">  0.0000000e+00,  1.0000000e-01,  5.0000000e-02</node>
			<node id="13">  0.0000000e+00,  1.0000000e-01,  1.0000000e-01</node>
			<node id="14">  0.0000000e+00,  1.0000000e-01,  1.5000000e-01</node>
			<node id="15">  0.0000000e+00,  1.0000000e-01,  2.0000000e-01</node>
			<node id="16">  0.0000000e+00,  1.5000000e-01,  0.0000000e+00</node>
			<node id="17">  0.0000000e+00,  1.5000000e-01,  5.0000000e-02</node>
			<node id="18">  0.0000000e+00,  1.5000000e-01,  1.0000000e-01</node>
			<node id="19">  0.0000000e+00,  1.5000000e-01,  1.5000000e-01</node>
			<node id="20">  0.0000000e+00,  1.5000000e-01,  2.0000000e-01</node>
<!-- ... 507 like lines cut -->
		</Nodes>
		<Elements type="tet10" mat="1" name="Part1">
			<elem id="1">    70,    94,    89,    69,   453,   511,   454,   450,   451,   452</elem>
			<elem id="2">    29,    48,    46,    45,   256,   324,   257,   258,   319,   320</elem>
			<elem id="3">    94,    70,    89,    95,   453,   454,   511,   524,   455,   512</elem>
			<elem id="4">    44,    50,    87,    86,   309,   343,   310,   311,   344,   504</elem>
			<elem id="5">     6,     2,    27,     7,   103,   104,   121,   122,   105,   128</elem>
			<elem id="6">    83,    87,    82,    64,   496,   494,   495,   422,   423,   424</elem>
			<elem id="7">     8,    12,    49,     7,   137,   164,   138,   129,   130,   131</elem>
			<elem id="8">    38,    18,    55,    39,   209,   210,   286,   287,   211,   291</elem>
			<elem id="9">    56,    14,    13,    52,   183,   172,   173,   362,   184,   174</elem>
			<elem id="10">    91,    87,    50,    86,   506,   343,   345,   505,   504,   344</elem>
			<elem id="11">    38,    53,    51,    37,   288,   353,   289,   283,   284,   285</elem>
			<elem id="12">    92,    93,    66,    87,   520,   434,   435,   507,   508,   436</elem>
			<elem id="13">    83,    66,    87,    64,   437,   436,   496,   422,   425,   423</elem>
			<elem id="14">    26,     6,     1,    27,   123,    99,   100,   244,   121,   101</elem>
			<elem id="15">    47,    33,     7,    49,   269,   132,   133,   327,   270,   131</elem>
			<elem id="16">    58,    47,    59,    63,   328,   329,   384,   385,   330,   388</elem>
			<elem id="17">    27,    42,    26,    47,   248,   245,   244,   249,   300,   246</elem>
			<elem id="18">    23,    39,    40,    18,   236,   292,   237,   212,   211,   213</elem>
			<elem id="19">    56,    50,    13,    55,   346,   175,   173,   374,   347,   176</elem>
			<elem id="20">    27,     6,     7,    31,   121,   122,   128,   250,   124,   134</elem>
<!-- ... 216 like lines cut -->
		</Elements>
		<NodeSet name="FixedDisplacement1">
			<node id="1"/>
			<node id="2"/>
			<node id="3"/>
			<node id="4"/>
			<node id="5"/>
			<node id="6"/>
			<node id="7"/>
			<node id="8"/>
			<node id="9"/>
			<node id="10"/>
			<node id="11"/>
			<node id="12"/>
			<node id="13"/>
			<node id="14"/>
			<node id="15"/>
			<node id="16"/>
			<node id="17"/>
			<node id="18"/>
			<node id="19"/>
			<node id="20"/>
<!-- ... 61 like lines cut -->
		</NodeSet>
		<NodeSet name="FixedDisplacement2">
			<node id="74"/>
			<node id="75"/>
			<node id="76"/>
			<node id="77"/>
			<node id="78"/>
			<node id="79"/>
			<node id="80"/>
			<node id="81"/>
			<node id="82"/>
			<node id="83"/>
			<node id="84"/>
			<node id="85"/>
			<node id="86"/>
			<node id="87"/>
			<node id="88"/>
			<node id="89"/>
			<node id="90"/>
			<node id="91"/>
			<node id="92"/>
			<node id="93"/>
<!-- ... 61 like lines cut -->
		</NodeSet>
		<NodeSet name="PrescribedDisplacement1">
			<node id="74"/>
			<node id="75"/>
			<node id="76"/>
			<node id="77"/>
			<node id="78"/>
			<node id="79"/>
			<node id="80"/>
			<node id="81"/>
			<node id="82"/>
			<node id="83"/>
			<node id="84"/>
			<node id="85"/>
			<node id="86"/>
			<node id="87"/>
			<node id="88"/>
			<node id="89"/>
			<node id="90"/>
			<node id="91"/>
			<node id="92"/>
			<node id="93"/>
<!-- ... 61 like lines cut -->
		</NodeSet>
	</Geometry>
	<Boundary>
		<fix bc="x,y,z" node_set="FixedDisplacement1"/>
		<fix bc="y,z" node_set="FixedDisplacement2"/>
		<prescribe bc="x" node_set="PrescribedDisplacement1">
			<scale lc="1">-0.05</scale>
			<relative>0</relative>
		</prescribe>
	</Boundary>
	<LoadData>
		<loadcurve id="1" type="smooth">
			<point>0,0</point>
			<point>1,1</point>
		</loadcurve>
	</LoadData>
	<Output>
		<plotfile type="febio">
			<var type="displacement"/>
			<var type="stress"/>
		</plotfile>
	</Output>
</febio_spec>
